McPAT (version 1.0 of Aug, 2013) is computing the target processor...
 
Warning: InstBuffer array structure cannot satisfy latency constraint.
Warning: ReorderBuffer array structure cannot satisfy throughput constraint.
Warning: ReorderBuffer array structure cannot satisfy latency constraint.
Warning: InstBuffer array structure cannot satisfy latency constraint.
Warning: ReorderBuffer array structure cannot satisfy throughput constraint.
Warning: ReorderBuffer array structure cannot satisfy latency constraint.
Warning: InstBuffer array structure cannot satisfy latency constraint.
Warning: ReorderBuffer array structure cannot satisfy throughput constraint.
Warning: ReorderBuffer array structure cannot satisfy latency constraint.
Warning: InstBuffer array structure cannot satisfy latency constraint.
Warning: ReorderBuffer array structure cannot satisfy throughput constraint.
Warning: ReorderBuffer array structure cannot satisfy latency constraint.
Warning: InstBuffer array structure cannot satisfy latency constraint.
Warning: ReorderBuffer array structure cannot satisfy throughput constraint.
Warning: ReorderBuffer array structure cannot satisfy latency constraint.
Warning: InstBuffer array structure cannot satisfy latency constraint.
Warning: ReorderBuffer array structure cannot satisfy throughput constraint.
Warning: ReorderBuffer array structure cannot satisfy latency constraint.
Warning: InstBuffer array structure cannot satisfy latency constraint.
Warning: ReorderBuffer array structure cannot satisfy throughput constraint.
Warning: ReorderBuffer array structure cannot satisfy latency constraint.
Warning: InstBuffer array structure cannot satisfy latency constraint.
Warning: ReorderBuffer array structure cannot satisfy throughput constraint.
Warning: ReorderBuffer array structure cannot satisfy latency constraint.

McPAT (version 1.0 of Aug, 2013) results  (current print level is 5)
*****************************************************************************************
  Technology 45 nm
  Using Long Channel Devices When Appropriate
  Interconnect metal projection= aggressive interconnect technology projection
  Core clock Rate(MHz) 2660

*****************************************************************************************
Processor: 
  Area = 14342.7 mm^2
  Peak Power = 1.6747e+06 W
  Total Leakage = 668.084 W
  Peak Dynamic = 1.67404e+06 W
  Subthreshold Leakage = 622.809 W
  Subthreshold Leakage with power gating = 266.738 W
  Gate Leakage = 45.2757 W
  Runtime Dynamic = 985.097 W

  Total Cores: 8 cores 
  Device Type= ITRS high performance device type
    Area = 14213.8 mm^2
    Peak Dynamic = 1.67403e+06 W
    Subthreshold Leakage = 611.336 W
    Subthreshold Leakage with power gating = 260.82 W
    Gate Leakage = 45.0629 W
    Runtime Dynamic = 985.086 W

  Total L2s: 
  Device Type= ITRS high performance device type
    Area = 44.4546 mm^2
    Peak Dynamic = 0.0133238 W
    Subthreshold Leakage = 4.03993 W
    Subthreshold Leakage with power gating = 1.8162 W
    Gate Leakage = 0.103688 W
    Runtime Dynamic = 0.00505413 W

  Total L3s: 
  Device Type= ITRS high performance device type
    Area = 61.9075 mm^2
    Peak Dynamic = 0.00922473 W
    Subthreshold Leakage = 6.80085 W
    Subthreshold Leakage with power gating = 3.32364 W
    Gate Leakage = 0.0484137 W
    Runtime Dynamic = 0.00572679 W

  Total NoCs (Network/Bus): 
  Device Type= ITRS high performance device type
    Area = 22.5992 mm^2
    Peak Dynamic = 0 W
    Subthreshold Leakage = 0.632215 W
    Subthreshold Leakage with power gating = 0.23708 W
    Gate Leakage = 0.0606272 W
    Runtime Dynamic = 0 W

*****************************************************************************************
Core:
      Area = 1776.72 mm^2
      Peak Dynamic = 209254 W
      Subthreshold Leakage = 76.417 W
      Subthreshold Leakage with power gating = 32.6025 W
      Gate Leakage = 5.63287 W
      Runtime Dynamic = 124.386 W

      Instruction Fetch Unit:
        Area = 47.2731 mm^2
        Peak Dynamic = 4050.73 W
        Subthreshold Leakage = 2.37932 W
        Subthreshold Leakage with power gating = 0.95452 W
        Gate Leakage = 0.23961 W
        Runtime Dynamic = 1.38545 W

          Instruction Cache:
            Area = 4.86613 mm^2
            Peak Dynamic = 0.29382 W
            Subthreshold Leakage = 0.486629 W
            Subthreshold Leakage with power gating = 0.22691 W
            Gate Leakage = 0.0421203 W
            Runtime Dynamic = 0.0280943 W

          Branch Target Buffer:
            Area = 0.64954 mm^2
            Peak Dynamic = 0.177867 W
            Subthreshold Leakage = 0.0811682 W
            Subthreshold Leakage with power gating = 0.0435357 W
            Gate Leakage = 0.00272758 W
            Runtime Dynamic = 0.000793519 W

          Branch Predictor:
            Area = 0.138516 mm^2
            Peak Dynamic = 0.0597838 W
            Subthreshold Leakage = 0.0199703 W
            Subthreshold Leakage with power gating = 0.0103282 W
            Gate Leakage = 0.000757657 W
            Runtime Dynamic = 0.000281512 W

              Global Predictor:
                Area = 0.0435221 mm^2
                Peak Dynamic = 0.0168831 W
                Subthreshold Leakage = 0.00759719 W
                Subthreshold Leakage with power gating = 0.0039236 W
                Gate Leakage = 0.000278362 W
                Runtime Dynamic = 8.13134e-05 W

              Local Predictor:
              L1_Local Predictor:
                Area = 0.0257064 mm^2
                Peak Dynamic = 0.0142575 W
                Subthreshold Leakage = 0.00384344 W
                Subthreshold Leakage with power gating = 0.00198631 W
                Gate Leakage = 0.000154548 W
                Runtime Dynamic = 7.0435e-05 W

              L2_Local Predictor:
                Area = 0.0151917 mm^2
                Peak Dynamic = 0.00527447 W
                Subthreshold Leakage = 0.00181347 W
                Subthreshold Leakage with power gating = 0.000957045 W
                Gate Leakage = 8.00196e-05 W
                Runtime Dynamic = 2.70538e-05 W

              Chooser:
                Area = 0.0435221 mm^2
                Peak Dynamic = 0.0168831 W
                Subthreshold Leakage = 0.00759719 W
                Subthreshold Leakage with power gating = 0.0039236 W
                Gate Leakage = 0.000278362 W
                Runtime Dynamic = 8.13134e-05 W

              RAS:
                Area = 0.0105732 mm^2
                Peak Dynamic = 0.0117602 W
                Subthreshold Leakage = 0.000932505 W
                Subthreshold Leakage with power gating = 0.000494733 W
                Gate Leakage = 4.63858e-05 W
                Runtime Dynamic = 4.84507e-05 W

          Instruction Buffer:
            Area = 11.1802 mm^2
            Peak Dynamic = 4028.05 W
            Subthreshold Leakage = 1.03354 W
            Subthreshold Leakage with power gating = 0.389491 W
            Gate Leakage = 0.119458 W
            Runtime Dynamic = 1.34527 W

          Instruction Decoder:
            Area = 29.7278 mm^2
            Peak Dynamic = 21.9846 W
            Subthreshold Leakage = 0.442943 W
            Subthreshold Leakage with power gating = 0.166104 W
            Gate Leakage = 0.0222493 W
            Runtime Dynamic = 0.0110134 W

      Renaming Unit:
        Area = 27.8071 mm^2
        Peak Dynamic = 2556.62 W
        Subthreshold Leakage = 0.87819 W
        Subthreshold Leakage with power gating = 0.437089 W
        Gate Leakage = 0.0906085 W
        Runtime Dynamic = 1.36672 W

          Int Front End RAT:
            Area = 19.3301 mm^2
            Peak Dynamic = 2465.83 W
            Subthreshold Leakage = 0.500294 W
            Subthreshold Leakage with power gating = 0.285168 W
            Gate Leakage = 0.0323898 W
            Runtime Dynamic = 1.23228 W

          FP Front End RAT:
            Area = 0.168486 mm^2
            Peak Dynamic = 78.3725 W
            Subthreshold Leakage = 0.0437281 W
            Subthreshold Leakage with power gating = 0.024925 W
            Gate Leakage = 0.00489731 W
            Runtime Dynamic = 0.126264 W

          Free List:
            Area = 7.5975 mm^2
            Peak Dynamic = 7.41375 W
            Subthreshold Leakage = 0.0190978 W
            Subthreshold Leakage with power gating = 0.00884518 W
            Gate Leakage = 0.00102434 W
            Runtime Dynamic = 0.00817451 W

      Load Store Unit:
        Area = 9.47562 mm^2
        Peak Dynamic = 1.51289 W
        Subthreshold Leakage = 0.886727 W
        Subthreshold Leakage with power gating = 0.394071 W
        Gate Leakage = 0.0841218 W
        Runtime Dynamic = 0.105456 W

          Data Cache:
            Area = 6.84535 mm^2
            Peak Dynamic = 1.39351 W
            Subthreshold Leakage = 0.527675 W
            Subthreshold Leakage with power gating = 0.25085 W
            Gate Leakage = 0.0279261 W
            Runtime Dynamic = 0.0754447 W

          LoadQ:
            Area = 0.0836782 mm^2
            Peak Dynamic = 0.00505957 W
            Subthreshold Leakage = 0.00941961 W
            Subthreshold Leakage with power gating = 0.00536918 W
            Gate Leakage = 0.00059896 W
            Runtime Dynamic = 0.00505946 W

          StoreQ:
            Area = 0.322079 mm^2
            Peak Dynamic = 0.012476 W
            Subthreshold Leakage = 0.0345621 W
            Subthreshold Leakage with power gating = 0.0197004 W
            Gate Leakage = 0.00329971 W
            Runtime Dynamic = 0.0249515 W

      Memory Management Unit:
        Area = 1.10051 mm^2
        Peak Dynamic = 2.56939 W
        Subthreshold Leakage = 0.372016 W
        Subthreshold Leakage with power gating = 0.150611 W
        Gate Leakage = 0.057119 W
        Runtime Dynamic = 0.00661997 W

          Itlb:
            Area = 0.301552 mm^2
            Peak Dynamic = 0.0128246 W
            Subthreshold Leakage = 0.0413758 W
            Subthreshold Leakage with power gating = 0.0235842 W
            Gate Leakage = 0.00393464 W
            Runtime Dynamic = 0.0021755 W

          Dtlb:
            Area = 0.0879726 mm^2
            Peak Dynamic = 0.00442778 W
            Subthreshold Leakage = 0.0155699 W
            Subthreshold Leakage with power gating = 0.00887485 W
            Gate Leakage = 0.00088729 W
            Runtime Dynamic = 0.0044437 W

      Execution Unit:
        Area = 1686.67 mm^2
        Peak Dynamic = 202643 W
        Subthreshold Leakage = 70.0229 W
        Subthreshold Leakage with power gating = 29.962 W
        Gate Leakage = 5.03755 W
        Runtime Dynamic = 121.522 W

          Register Files:
            Area = 111.819 mm^2
            Peak Dynamic = 0.514063 W
            Subthreshold Leakage = 1.55192 W
            Subthreshold Leakage with power gating = 0.587195 W
            Gate Leakage = 0.101689 W
            Runtime Dynamic = 0.0505635 W

              Integer RF:
                Area = 74.0344 mm^2
                Peak Dynamic = 0.224239 W
                Subthreshold Leakage = 1.06477 W
                Subthreshold Leakage with power gating = 0.401522 W
                Gate Leakage = 0.0700135 W
                Runtime Dynamic = 0.0451991 W

              Floating Point RF:
                Area = 37.7848 mm^2
                Peak Dynamic = 0.289824 W
                Subthreshold Leakage = 0.487147 W
                Subthreshold Leakage with power gating = 0.185673 W
                Gate Leakage = 0.0316755 W
                Runtime Dynamic = 0.00536449 W

          Instruction Scheduler:
            Area = 1561.2 mm^2
            Peak Dynamic = 202642 W
            Subthreshold Leakage = 59.5387 W
            Subthreshold Leakage with power gating = 26.0252 W
            Gate Leakage = 4.31521 W
            Runtime Dynamic = 120.465 W

              Instruction Window:
                Area = 242.241 mm^2
                Peak Dynamic = 491.03 W
                Subthreshold Leakage = 18.7871 W
                Subthreshold Leakage with power gating = 10.7075 W
                Gate Leakage = 1.23925 W
                Runtime Dynamic = 0.317813 W

              FP Instruction Window:
                Area = 0.328073 mm^2
                Peak Dynamic = 2.30959 W
                Subthreshold Leakage = 0.0225127 W
                Subthreshold Leakage with power gating = 0.0116864 W
                Gate Leakage = 0.00181534 W
                Runtime Dynamic = 0.0213969 W

              ROB:
                Area = 1318.63 mm^2
                Peak Dynamic = 202149 W
                Subthreshold Leakage = 40.7291 W
                Subthreshold Leakage with power gating = 15.306 W
                Gate Leakage = 3.07414 W
                Runtime Dynamic = 120.126 W

          Integer ALUs (Count: 96 ):
            Area = 7.53393 mm^2
            Peak Dynamic = 0.0107152 W
            Subthreshold Leakage = 6.43552 W
            Subthreshold Leakage with power gating = 2.41332 W
            Gate Leakage = 0.424466 W
            Runtime Dynamic = 0.112603 W

          Floating Point Units (FPUs) (Count: 2 ):
            Area = 4.6585 mm^2
            Peak Dynamic = 0.00815178 W
            Subthreshold Leakage = 0.994829 W
            Subthreshold Leakage with power gating = 0.373061 W
            Gate Leakage = 0.0656156 W
            Runtime Dynamic = 0.307619 W

          Complex ALUs (Mul/Div) (Count: 1 ):
            Area = 0.235435 mm^2
            Peak Dynamic = 0.00144915 W
            Subthreshold Leakage = 0.20111 W
            Subthreshold Leakage with power gating = 0.0754163 W
            Gate Leakage = 0.0132646 W
            Runtime Dynamic = 0.203827 W

          Results Broadcast Bus:
            Area Overhead = 0.510923 mm^2
            Peak Dynamic = 0.0419878 W
            Subthreshold Leakage = 0.985661 W
            Subthreshold Leakage with power gating = 0.369623 W
            Gate Leakage = 0.0650109 W
            Runtime Dynamic = 0.382264 W

*****************************************************************************************
Core:
      Area = 1776.72 mm^2
      Peak Dynamic = 209254 W
      Subthreshold Leakage = 76.417 W
      Subthreshold Leakage with power gating = 32.6025 W
      Gate Leakage = 5.63287 W
      Runtime Dynamic = 123.071 W

      Instruction Fetch Unit:
        Area = 47.2731 mm^2
        Peak Dynamic = 4050.73 W
        Subthreshold Leakage = 2.37932 W
        Subthreshold Leakage with power gating = 0.95452 W
        Gate Leakage = 0.23961 W
        Runtime Dynamic = 1.37021 W

          Instruction Cache:
            Area = 4.86613 mm^2
            Peak Dynamic = 0.290567 W
            Subthreshold Leakage = 0.486629 W
            Subthreshold Leakage with power gating = 0.22691 W
            Gate Leakage = 0.0421203 W
            Runtime Dynamic = 0.0278602 W

          Branch Target Buffer:
            Area = 0.64954 mm^2
            Peak Dynamic = 0.177867 W
            Subthreshold Leakage = 0.0811682 W
            Subthreshold Leakage with power gating = 0.0435357 W
            Gate Leakage = 0.00272758 W
            Runtime Dynamic = 0.000781702 W

          Branch Predictor:
            Area = 0.138516 mm^2
            Peak Dynamic = 0.0597838 W
            Subthreshold Leakage = 0.0199703 W
            Subthreshold Leakage with power gating = 0.0103282 W
            Gate Leakage = 0.000757657 W
            Runtime Dynamic = 0.000277251 W

              Global Predictor:
                Area = 0.0435221 mm^2
                Peak Dynamic = 0.0168831 W
                Subthreshold Leakage = 0.00759719 W
                Subthreshold Leakage with power gating = 0.0039236 W
                Gate Leakage = 0.000278362 W
                Runtime Dynamic = 8.00205e-05 W

              Local Predictor:
              L1_Local Predictor:
                Area = 0.0257064 mm^2
                Peak Dynamic = 0.0142575 W
                Subthreshold Leakage = 0.00384344 W
                Subthreshold Leakage with power gating = 0.00198631 W
                Gate Leakage = 0.000154548 W
                Runtime Dynamic = 6.92927e-05 W

              L2_Local Predictor:
                Area = 0.0151917 mm^2
                Peak Dynamic = 0.00527447 W
                Subthreshold Leakage = 0.00181347 W
                Subthreshold Leakage with power gating = 0.000957045 W
                Gate Leakage = 8.00196e-05 W
                Runtime Dynamic = 2.66028e-05 W

              Chooser:
                Area = 0.0435221 mm^2
                Peak Dynamic = 0.0168831 W
                Subthreshold Leakage = 0.00759719 W
                Subthreshold Leakage with power gating = 0.0039236 W
                Gate Leakage = 0.000278362 W
                Runtime Dynamic = 8.00205e-05 W

              RAS:
                Area = 0.0105732 mm^2
                Peak Dynamic = 0.0117602 W
                Subthreshold Leakage = 0.000932505 W
                Subthreshold Leakage with power gating = 0.000494733 W
                Gate Leakage = 4.63858e-05 W
                Runtime Dynamic = 4.79173e-05 W

          Instruction Buffer:
            Area = 11.1802 mm^2
            Peak Dynamic = 4028.05 W
            Subthreshold Leakage = 1.03354 W
            Subthreshold Leakage with power gating = 0.389491 W
            Gate Leakage = 0.119458 W
            Runtime Dynamic = 1.33039 W

          Instruction Decoder:
            Area = 29.7278 mm^2
            Peak Dynamic = 21.9846 W
            Subthreshold Leakage = 0.442943 W
            Subthreshold Leakage with power gating = 0.166104 W
            Gate Leakage = 0.0222493 W
            Runtime Dynamic = 0.0108917 W

      Renaming Unit:
        Area = 27.8071 mm^2
        Peak Dynamic = 2556.62 W
        Subthreshold Leakage = 0.87819 W
        Subthreshold Leakage with power gating = 0.437089 W
        Gate Leakage = 0.0906085 W
        Runtime Dynamic = 1.35301 W

          Int Front End RAT:
            Area = 19.3301 mm^2
            Peak Dynamic = 2465.83 W
            Subthreshold Leakage = 0.500294 W
            Subthreshold Leakage with power gating = 0.285168 W
            Gate Leakage = 0.0323898 W
            Runtime Dynamic = 1.21865 W

          FP Front End RAT:
            Area = 0.168486 mm^2
            Peak Dynamic = 78.3725 W
            Subthreshold Leakage = 0.0437281 W
            Subthreshold Leakage with power gating = 0.024925 W
            Gate Leakage = 0.00489731 W
            Runtime Dynamic = 0.126264 W

          Free List:
            Area = 7.5975 mm^2
            Peak Dynamic = 7.41375 W
            Subthreshold Leakage = 0.0190978 W
            Subthreshold Leakage with power gating = 0.00884518 W
            Gate Leakage = 0.00102434 W
            Runtime Dynamic = 0.00809239 W

      Load Store Unit:
        Area = 9.47562 mm^2
        Peak Dynamic = 1.51101 W
        Subthreshold Leakage = 0.886727 W
        Subthreshold Leakage with power gating = 0.394071 W
        Gate Leakage = 0.0841218 W
        Runtime Dynamic = 0.104648 W

          Data Cache:
            Area = 6.84535 mm^2
            Peak Dynamic = 1.39244 W
            Subthreshold Leakage = 0.527675 W
            Subthreshold Leakage with power gating = 0.25085 W
            Gate Leakage = 0.0279261 W
            Runtime Dynamic = 0.0748409 W

          LoadQ:
            Area = 0.0836782 mm^2
            Peak Dynamic = 0.00502502 W
            Subthreshold Leakage = 0.00941961 W
            Subthreshold Leakage with power gating = 0.00536918 W
            Gate Leakage = 0.00059896 W
            Runtime Dynamic = 0.00502495 W

          StoreQ:
            Area = 0.322079 mm^2
            Peak Dynamic = 0.0123909 W
            Subthreshold Leakage = 0.0345621 W
            Subthreshold Leakage with power gating = 0.0197004 W
            Gate Leakage = 0.00329971 W
            Runtime Dynamic = 0.0247814 W

      Memory Management Unit:
        Area = 1.10051 mm^2
        Peak Dynamic = 2.56887 W
        Subthreshold Leakage = 0.372016 W
        Subthreshold Leakage with power gating = 0.150611 W
        Gate Leakage = 0.057119 W
        Runtime Dynamic = 0.00656848 W

          Itlb:
            Area = 0.301552 mm^2
            Peak Dynamic = 0.0126826 W
            Subthreshold Leakage = 0.0413758 W
            Subthreshold Leakage with power gating = 0.0235842 W
            Gate Leakage = 0.00393464 W
            Runtime Dynamic = 0.00215736 W

          Dtlb:
            Area = 0.0879726 mm^2
            Peak Dynamic = 0.00439755 W
            Subthreshold Leakage = 0.0155699 W
            Subthreshold Leakage with power gating = 0.00887485 W
            Gate Leakage = 0.00088729 W
            Runtime Dynamic = 0.00441036 W

      Execution Unit:
        Area = 1686.67 mm^2
        Peak Dynamic = 202643 W
        Subthreshold Leakage = 70.0229 W
        Subthreshold Leakage with power gating = 29.962 W
        Gate Leakage = 5.03755 W
        Runtime Dynamic = 120.237 W

          Register Files:
            Area = 111.819 mm^2
            Peak Dynamic = 0.513666 W
            Subthreshold Leakage = 1.55192 W
            Subthreshold Leakage with power gating = 0.587195 W
            Gate Leakage = 0.101689 W
            Runtime Dynamic = 0.0500046 W

              Integer RF:
                Area = 74.0344 mm^2
                Peak Dynamic = 0.223842 W
                Subthreshold Leakage = 1.06477 W
                Subthreshold Leakage with power gating = 0.401522 W
                Gate Leakage = 0.0700135 W
                Runtime Dynamic = 0.0446994 W

              Floating Point RF:
                Area = 37.7848 mm^2
                Peak Dynamic = 0.289824 W
                Subthreshold Leakage = 0.487147 W
                Subthreshold Leakage with power gating = 0.185673 W
                Gate Leakage = 0.0316755 W
                Runtime Dynamic = 0.00530513 W

          Instruction Scheduler:
            Area = 1561.2 mm^2
            Peak Dynamic = 202642 W
            Subthreshold Leakage = 59.5387 W
            Subthreshold Leakage with power gating = 26.0252 W
            Gate Leakage = 4.31521 W
            Runtime Dynamic = 119.185 W

              Instruction Window:
                Area = 242.241 mm^2
                Peak Dynamic = 491.03 W
                Subthreshold Leakage = 18.7871 W
                Subthreshold Leakage with power gating = 10.7075 W
                Gate Leakage = 1.23925 W
                Runtime Dynamic = 0.3143 W

              FP Instruction Window:
                Area = 0.328073 mm^2
                Peak Dynamic = 2.30959 W
                Subthreshold Leakage = 0.0225127 W
                Subthreshold Leakage with power gating = 0.0116864 W
                Gate Leakage = 0.00181534 W
                Runtime Dynamic = 0.0211604 W

              ROB:
                Area = 1318.63 mm^2
                Peak Dynamic = 202149 W
                Subthreshold Leakage = 40.7291 W
                Subthreshold Leakage with power gating = 15.306 W
                Gate Leakage = 3.07414 W
                Runtime Dynamic = 118.849 W

          Integer ALUs (Count: 96 ):
            Area = 7.53393 mm^2
            Peak Dynamic = 0.0106081 W
            Subthreshold Leakage = 6.43552 W
            Subthreshold Leakage with power gating = 2.41332 W
            Gate Leakage = 0.424466 W
            Runtime Dynamic = 0.112478 W

          Floating Point Units (FPUs) (Count: 2 ):
            Area = 4.6585 mm^2
            Peak Dynamic = 0.00815178 W
            Subthreshold Leakage = 0.994829 W
            Subthreshold Leakage with power gating = 0.373061 W
            Gate Leakage = 0.0656156 W
            Runtime Dynamic = 0.307619 W

          Complex ALUs (Mul/Div) (Count: 1 ):
            Area = 0.235435 mm^2
            Peak Dynamic = 0.00144915 W
            Subthreshold Leakage = 0.20111 W
            Subthreshold Leakage with power gating = 0.0754163 W
            Gate Leakage = 0.0132646 W
            Runtime Dynamic = 0.203827 W

          Results Broadcast Bus:
            Area Overhead = 0.510923 mm^2
            Peak Dynamic = 0.0419194 W
            Subthreshold Leakage = 0.985661 W
            Subthreshold Leakage with power gating = 0.369623 W
            Gate Leakage = 0.0650109 W
            Runtime Dynamic = 0.378416 W

*****************************************************************************************
Core:
      Area = 1776.72 mm^2
      Peak Dynamic = 209254 W
      Subthreshold Leakage = 76.417 W
      Subthreshold Leakage with power gating = 32.6025 W
      Gate Leakage = 5.63287 W
      Runtime Dynamic = 123.654 W

      Instruction Fetch Unit:
        Area = 47.2731 mm^2
        Peak Dynamic = 4050.73 W
        Subthreshold Leakage = 2.37932 W
        Subthreshold Leakage with power gating = 0.95452 W
        Gate Leakage = 0.23961 W
        Runtime Dynamic = 1.37679 W

          Instruction Cache:
            Area = 4.86613 mm^2
            Peak Dynamic = 0.291969 W
            Subthreshold Leakage = 0.486629 W
            Subthreshold Leakage with power gating = 0.22691 W
            Gate Leakage = 0.0421203 W
            Runtime Dynamic = 0.0279816 W

          Branch Target Buffer:
            Area = 0.64954 mm^2
            Peak Dynamic = 0.177867 W
            Subthreshold Leakage = 0.0811682 W
            Subthreshold Leakage with power gating = 0.0435357 W
            Gate Leakage = 0.00272758 W
            Runtime Dynamic = 0.000787106 W

          Branch Predictor:
            Area = 0.138516 mm^2
            Peak Dynamic = 0.0597838 W
            Subthreshold Leakage = 0.0199703 W
            Subthreshold Leakage with power gating = 0.0103282 W
            Gate Leakage = 0.000757657 W
            Runtime Dynamic = 0.000278999 W

              Global Predictor:
                Area = 0.0435221 mm^2
                Peak Dynamic = 0.0168831 W
                Subthreshold Leakage = 0.00759719 W
                Subthreshold Leakage with power gating = 0.0039236 W
                Gate Leakage = 0.000278362 W
                Runtime Dynamic = 8.05516e-05 W

              Local Predictor:
              L1_Local Predictor:
                Area = 0.0257064 mm^2
                Peak Dynamic = 0.0142575 W
                Subthreshold Leakage = 0.00384344 W
                Subthreshold Leakage with power gating = 0.00198631 W
                Gate Leakage = 0.000154548 W
                Runtime Dynamic = 6.97466e-05 W

              L2_Local Predictor:
                Area = 0.0151917 mm^2
                Peak Dynamic = 0.00527447 W
                Subthreshold Leakage = 0.00181347 W
                Subthreshold Leakage with power gating = 0.000957045 W
                Gate Leakage = 8.00196e-05 W
                Runtime Dynamic = 2.67737e-05 W

              Chooser:
                Area = 0.0435221 mm^2
                Peak Dynamic = 0.0168831 W
                Subthreshold Leakage = 0.00759719 W
                Subthreshold Leakage with power gating = 0.0039236 W
                Gate Leakage = 0.000278362 W
                Runtime Dynamic = 8.05516e-05 W

              RAS:
                Area = 0.0105732 mm^2
                Peak Dynamic = 0.0117602 W
                Subthreshold Leakage = 0.000932505 W
                Subthreshold Leakage with power gating = 0.000494733 W
                Gate Leakage = 4.63858e-05 W
                Runtime Dynamic = 4.81492e-05 W

          Instruction Buffer:
            Area = 11.1802 mm^2
            Peak Dynamic = 4028.05 W
            Subthreshold Leakage = 1.03354 W
            Subthreshold Leakage with power gating = 0.389491 W
            Gate Leakage = 0.119458 W
            Runtime Dynamic = 1.3368 W

          Instruction Decoder:
            Area = 29.7278 mm^2
            Peak Dynamic = 21.9846 W
            Subthreshold Leakage = 0.442943 W
            Subthreshold Leakage with power gating = 0.166104 W
            Gate Leakage = 0.0222493 W
            Runtime Dynamic = 0.0109441 W

      Renaming Unit:
        Area = 27.8071 mm^2
        Peak Dynamic = 2556.62 W
        Subthreshold Leakage = 0.87819 W
        Subthreshold Leakage with power gating = 0.437089 W
        Gate Leakage = 0.0906085 W
        Runtime Dynamic = 1.35891 W

          Int Front End RAT:
            Area = 19.3301 mm^2
            Peak Dynamic = 2465.83 W
            Subthreshold Leakage = 0.500294 W
            Subthreshold Leakage with power gating = 0.285168 W
            Gate Leakage = 0.0323898 W
            Runtime Dynamic = 1.22452 W

          FP Front End RAT:
            Area = 0.168486 mm^2
            Peak Dynamic = 78.3725 W
            Subthreshold Leakage = 0.0437281 W
            Subthreshold Leakage with power gating = 0.024925 W
            Gate Leakage = 0.00489731 W
            Runtime Dynamic = 0.126264 W

          Free List:
            Area = 7.5975 mm^2
            Peak Dynamic = 7.41375 W
            Subthreshold Leakage = 0.0190978 W
            Subthreshold Leakage with power gating = 0.00884518 W
            Gate Leakage = 0.00102434 W
            Runtime Dynamic = 0.00812776 W

      Load Store Unit:
        Area = 9.47562 mm^2
        Peak Dynamic = 1.51185 W
        Subthreshold Leakage = 0.886727 W
        Subthreshold Leakage with power gating = 0.394071 W
        Gate Leakage = 0.0841218 W
        Runtime Dynamic = 0.105044 W

          Data Cache:
            Area = 6.84535 mm^2
            Peak Dynamic = 1.39292 W
            Subthreshold Leakage = 0.527675 W
            Subthreshold Leakage with power gating = 0.25085 W
            Gate Leakage = 0.0279261 W
            Runtime Dynamic = 0.0751456 W

          LoadQ:
            Area = 0.0836782 mm^2
            Peak Dynamic = 0.00504043 W
            Subthreshold Leakage = 0.00941961 W
            Subthreshold Leakage with power gating = 0.00536918 W
            Gate Leakage = 0.00059896 W
            Runtime Dynamic = 0.00504032 W

          StoreQ:
            Area = 0.322079 mm^2
            Peak Dynamic = 0.0124288 W
            Subthreshold Leakage = 0.0345621 W
            Subthreshold Leakage with power gating = 0.0197004 W
            Gate Leakage = 0.00329971 W
            Runtime Dynamic = 0.0248571 W

      Memory Management Unit:
        Area = 1.10051 mm^2
        Peak Dynamic = 2.5691 W
        Subthreshold Leakage = 0.372016 W
        Subthreshold Leakage with power gating = 0.150611 W
        Gate Leakage = 0.057119 W
        Runtime Dynamic = 0.00659322 W

          Itlb:
            Area = 0.301552 mm^2
            Peak Dynamic = 0.0127438 W
            Subthreshold Leakage = 0.0413758 W
            Subthreshold Leakage with power gating = 0.0235842 W
            Gate Leakage = 0.00393464 W
            Runtime Dynamic = 0.00216678 W

          Dtlb:
            Area = 0.0879726 mm^2
            Peak Dynamic = 0.00441104 W
            Subthreshold Leakage = 0.0155699 W
            Subthreshold Leakage with power gating = 0.00887485 W
            Gate Leakage = 0.00088729 W
            Runtime Dynamic = 0.00442567 W

      Execution Unit:
        Area = 1686.67 mm^2
        Peak Dynamic = 202643 W
        Subthreshold Leakage = 70.0229 W
        Subthreshold Leakage with power gating = 29.962 W
        Gate Leakage = 5.03755 W
        Runtime Dynamic = 120.807 W

          Register Files:
            Area = 111.819 mm^2
            Peak Dynamic = 0.513798 W
            Subthreshold Leakage = 1.55192 W
            Subthreshold Leakage with power gating = 0.587195 W
            Gate Leakage = 0.101689 W
            Runtime Dynamic = 0.0502454 W

              Integer RF:
                Area = 74.0344 mm^2
                Peak Dynamic = 0.223974 W
                Subthreshold Leakage = 1.06477 W
                Subthreshold Leakage with power gating = 0.401522 W
                Gate Leakage = 0.0700135 W
                Runtime Dynamic = 0.0449147 W

              Floating Point RF:
                Area = 37.7848 mm^2
                Peak Dynamic = 0.289824 W
                Subthreshold Leakage = 0.487147 W
                Subthreshold Leakage with power gating = 0.185673 W
                Gate Leakage = 0.0316755 W
                Runtime Dynamic = 0.00533074 W

          Instruction Scheduler:
            Area = 1561.2 mm^2
            Peak Dynamic = 202642 W
            Subthreshold Leakage = 59.5387 W
            Subthreshold Leakage with power gating = 26.0252 W
            Gate Leakage = 4.31521 W
            Runtime Dynamic = 119.752 W

              Instruction Window:
                Area = 242.241 mm^2
                Peak Dynamic = 491.03 W
                Subthreshold Leakage = 18.7871 W
                Subthreshold Leakage with power gating = 10.7075 W
                Gate Leakage = 1.23925 W
                Runtime Dynamic = 0.315813 W

              FP Instruction Window:
                Area = 0.328073 mm^2
                Peak Dynamic = 2.30959 W
                Subthreshold Leakage = 0.0225127 W
                Subthreshold Leakage with power gating = 0.0116864 W
                Gate Leakage = 0.00181534 W
                Runtime Dynamic = 0.0212624 W

              ROB:
                Area = 1318.63 mm^2
                Peak Dynamic = 202149 W
                Subthreshold Leakage = 40.7291 W
                Subthreshold Leakage with power gating = 15.306 W
                Gate Leakage = 3.07414 W
                Runtime Dynamic = 119.415 W

          Integer ALUs (Count: 96 ):
            Area = 7.53393 mm^2
            Peak Dynamic = 0.0106438 W
            Subthreshold Leakage = 6.43552 W
            Subthreshold Leakage with power gating = 2.41332 W
            Gate Leakage = 0.424466 W
            Runtime Dynamic = 0.112533 W

          Floating Point Units (FPUs) (Count: 2 ):
            Area = 4.6585 mm^2
            Peak Dynamic = 0.00815178 W
            Subthreshold Leakage = 0.994829 W
            Subthreshold Leakage with power gating = 0.373061 W
            Gate Leakage = 0.0656156 W
            Runtime Dynamic = 0.307619 W

          Complex ALUs (Mul/Div) (Count: 1 ):
            Area = 0.235435 mm^2
            Peak Dynamic = 0.00144915 W
            Subthreshold Leakage = 0.20111 W
            Subthreshold Leakage with power gating = 0.0754163 W
            Gate Leakage = 0.0132646 W
            Runtime Dynamic = 0.203827 W

          Results Broadcast Bus:
            Area Overhead = 0.510923 mm^2
            Peak Dynamic = 0.0419422 W
            Subthreshold Leakage = 0.985661 W
            Subthreshold Leakage with power gating = 0.369623 W
            Gate Leakage = 0.0650109 W
            Runtime Dynamic = 0.380112 W

*****************************************************************************************
Core:
      Area = 1776.72 mm^2
      Peak Dynamic = 209254 W
      Subthreshold Leakage = 76.417 W
      Subthreshold Leakage with power gating = 32.6025 W
      Gate Leakage = 5.63287 W
      Runtime Dynamic = 122.413 W

      Instruction Fetch Unit:
        Area = 47.2731 mm^2
        Peak Dynamic = 4050.72 W
        Subthreshold Leakage = 2.37932 W
        Subthreshold Leakage with power gating = 0.95452 W
        Gate Leakage = 0.23961 W
        Runtime Dynamic = 1.36244 W

          Instruction Cache:
            Area = 4.86613 mm^2
            Peak Dynamic = 0.288908 W
            Subthreshold Leakage = 0.486629 W
            Subthreshold Leakage with power gating = 0.22691 W
            Gate Leakage = 0.0421203 W
            Runtime Dynamic = 0.0277595 W

          Branch Target Buffer:
            Area = 0.64954 mm^2
            Peak Dynamic = 0.177867 W
            Subthreshold Leakage = 0.0811682 W
            Subthreshold Leakage with power gating = 0.0435357 W
            Gate Leakage = 0.00272758 W
            Runtime Dynamic = 0.000775589 W

          Branch Predictor:
            Area = 0.138516 mm^2
            Peak Dynamic = 0.0597838 W
            Subthreshold Leakage = 0.0199703 W
            Subthreshold Leakage with power gating = 0.0103282 W
            Gate Leakage = 0.000757657 W
            Runtime Dynamic = 0.000274859 W

              Global Predictor:
                Area = 0.0435221 mm^2
                Peak Dynamic = 0.0168831 W
                Subthreshold Leakage = 0.00759719 W
                Subthreshold Leakage with power gating = 0.0039236 W
                Gate Leakage = 0.000278362 W
                Runtime Dynamic = 7.92912e-05 W

              Local Predictor:
              L1_Local Predictor:
                Area = 0.0257064 mm^2
                Peak Dynamic = 0.0142575 W
                Subthreshold Leakage = 0.00384344 W
                Subthreshold Leakage with power gating = 0.00198631 W
                Gate Leakage = 0.000154548 W
                Runtime Dynamic = 6.86328e-05 W

              L2_Local Predictor:
                Area = 0.0151917 mm^2
                Peak Dynamic = 0.00527447 W
                Subthreshold Leakage = 0.00181347 W
                Subthreshold Leakage with power gating = 0.000957045 W
                Gate Leakage = 8.00196e-05 W
                Runtime Dynamic = 2.63339e-05 W

              Chooser:
                Area = 0.0435221 mm^2
                Peak Dynamic = 0.0168831 W
                Subthreshold Leakage = 0.00759719 W
                Subthreshold Leakage with power gating = 0.0039236 W
                Gate Leakage = 0.000278362 W
                Runtime Dynamic = 7.92912e-05 W

              RAS:
                Area = 0.0105732 mm^2
                Peak Dynamic = 0.0117602 W
                Subthreshold Leakage = 0.000932505 W
                Subthreshold Leakage with power gating = 0.000494733 W
                Gate Leakage = 4.63858e-05 W
                Runtime Dynamic = 4.76437e-05 W

          Instruction Buffer:
            Area = 11.1802 mm^2
            Peak Dynamic = 4028.05 W
            Subthreshold Leakage = 1.03354 W
            Subthreshold Leakage with power gating = 0.389491 W
            Gate Leakage = 0.119458 W
            Runtime Dynamic = 1.3228 W

          Instruction Decoder:
            Area = 29.7278 mm^2
            Peak Dynamic = 21.9846 W
            Subthreshold Leakage = 0.442943 W
            Subthreshold Leakage with power gating = 0.166104 W
            Gate Leakage = 0.0222493 W
            Runtime Dynamic = 0.0108295 W

      Renaming Unit:
        Area = 27.8071 mm^2
        Peak Dynamic = 2556.62 W
        Subthreshold Leakage = 0.87819 W
        Subthreshold Leakage with power gating = 0.437089 W
        Gate Leakage = 0.0906085 W
        Runtime Dynamic = 1.346 W

          Int Front End RAT:
            Area = 19.3301 mm^2
            Peak Dynamic = 2465.83 W
            Subthreshold Leakage = 0.500294 W
            Subthreshold Leakage with power gating = 0.285168 W
            Gate Leakage = 0.0323898 W
            Runtime Dynamic = 1.21169 W

          FP Front End RAT:
            Area = 0.168486 mm^2
            Peak Dynamic = 78.3725 W
            Subthreshold Leakage = 0.0437281 W
            Subthreshold Leakage with power gating = 0.024925 W
            Gate Leakage = 0.00489731 W
            Runtime Dynamic = 0.126264 W

          Free List:
            Area = 7.5975 mm^2
            Peak Dynamic = 7.41375 W
            Subthreshold Leakage = 0.0190978 W
            Subthreshold Leakage with power gating = 0.00884518 W
            Gate Leakage = 0.00102434 W
            Runtime Dynamic = 0.00805045 W

      Load Store Unit:
        Area = 9.47562 mm^2
        Peak Dynamic = 1.51005 W
        Subthreshold Leakage = 0.886727 W
        Subthreshold Leakage with power gating = 0.394071 W
        Gate Leakage = 0.0841218 W
        Runtime Dynamic = 0.104247 W

          Data Cache:
            Area = 6.84535 mm^2
            Peak Dynamic = 1.3919 W
            Subthreshold Leakage = 0.527675 W
            Subthreshold Leakage with power gating = 0.25085 W
            Gate Leakage = 0.0279261 W
            Runtime Dynamic = 0.0745446 W

          LoadQ:
            Area = 0.0836782 mm^2
            Peak Dynamic = 0.00500738 W
            Subthreshold Leakage = 0.00941961 W
            Subthreshold Leakage with power gating = 0.00536918 W
            Gate Leakage = 0.00059896 W
            Runtime Dynamic = 0.0050073 W

          StoreQ:
            Area = 0.322079 mm^2
            Peak Dynamic = 0.0123473 W
            Subthreshold Leakage = 0.0345621 W
            Subthreshold Leakage with power gating = 0.0197004 W
            Gate Leakage = 0.00329971 W
            Runtime Dynamic = 0.0246943 W

      Memory Management Unit:
        Area = 1.10051 mm^2
        Peak Dynamic = 2.56861 W
        Subthreshold Leakage = 0.372016 W
        Subthreshold Leakage with power gating = 0.150611 W
        Gate Leakage = 0.057119 W
        Runtime Dynamic = 0.00654272 W

          Itlb:
            Area = 0.301552 mm^2
            Peak Dynamic = 0.0126102 W
            Subthreshold Leakage = 0.0413758 W
            Subthreshold Leakage with power gating = 0.0235842 W
            Gate Leakage = 0.00393464 W
            Runtime Dynamic = 0.0021481 W

          Dtlb:
            Area = 0.0879726 mm^2
            Peak Dynamic = 0.00438211 W
            Subthreshold Leakage = 0.0155699 W
            Subthreshold Leakage with power gating = 0.00887485 W
            Gate Leakage = 0.00088729 W
            Runtime Dynamic = 0.00439385 W

      Execution Unit:
        Area = 1686.67 mm^2
        Peak Dynamic = 202643 W
        Subthreshold Leakage = 70.0229 W
        Subthreshold Leakage with power gating = 29.962 W
        Gate Leakage = 5.03755 W
        Runtime Dynamic = 119.594 W

          Register Files:
            Area = 111.819 mm^2
            Peak Dynamic = 0.513401 W
            Subthreshold Leakage = 1.55192 W
            Subthreshold Leakage with power gating = 0.587195 W
            Gate Leakage = 0.101689 W
            Runtime Dynamic = 0.0497191 W

              Integer RF:
                Area = 74.0344 mm^2
                Peak Dynamic = 0.223577 W
                Subthreshold Leakage = 1.06477 W
                Subthreshold Leakage with power gating = 0.401522 W
                Gate Leakage = 0.0700135 W
                Runtime Dynamic = 0.0444442 W

              Floating Point RF:
                Area = 37.7848 mm^2
                Peak Dynamic = 0.289824 W
                Subthreshold Leakage = 0.487147 W
                Subthreshold Leakage with power gating = 0.185673 W
                Gate Leakage = 0.0316755 W
                Runtime Dynamic = 0.00527488 W

          Instruction Scheduler:
            Area = 1561.2 mm^2
            Peak Dynamic = 202642 W
            Subthreshold Leakage = 59.5387 W
            Subthreshold Leakage with power gating = 26.0252 W
            Gate Leakage = 4.31521 W
            Runtime Dynamic = 118.544 W

              Instruction Window:
                Area = 242.241 mm^2
                Peak Dynamic = 491.03 W
                Subthreshold Leakage = 18.7871 W
                Subthreshold Leakage with power gating = 10.7075 W
                Gate Leakage = 1.23925 W
                Runtime Dynamic = 0.312505 W

              FP Instruction Window:
                Area = 0.328073 mm^2
                Peak Dynamic = 2.30959 W
                Subthreshold Leakage = 0.0225127 W
                Subthreshold Leakage with power gating = 0.0116864 W
                Gate Leakage = 0.00181534 W
                Runtime Dynamic = 0.0210396 W

              ROB:
                Area = 1318.63 mm^2
                Peak Dynamic = 202149 W
                Subthreshold Leakage = 40.7291 W
                Subthreshold Leakage with power gating = 15.306 W
                Gate Leakage = 3.07414 W
                Runtime Dynamic = 118.21 W

          Integer ALUs (Count: 96 ):
            Area = 7.53393 mm^2
            Peak Dynamic = 0.0105366 W
            Subthreshold Leakage = 6.43552 W
            Subthreshold Leakage with power gating = 2.41332 W
            Gate Leakage = 0.424466 W
            Runtime Dynamic = 0.112416 W

          Floating Point Units (FPUs) (Count: 2 ):
            Area = 4.6585 mm^2
            Peak Dynamic = 0.00815178 W
            Subthreshold Leakage = 0.994829 W
            Subthreshold Leakage with power gating = 0.373061 W
            Gate Leakage = 0.0656156 W
            Runtime Dynamic = 0.307619 W

          Complex ALUs (Mul/Div) (Count: 1 ):
            Area = 0.235435 mm^2
            Peak Dynamic = 0.00144915 W
            Subthreshold Leakage = 0.20111 W
            Subthreshold Leakage with power gating = 0.0754163 W
            Gate Leakage = 0.0132646 W
            Runtime Dynamic = 0.203827 W

          Results Broadcast Bus:
            Area Overhead = 0.510923 mm^2
            Peak Dynamic = 0.0418739 W
            Subthreshold Leakage = 0.985661 W
            Subthreshold Leakage with power gating = 0.369623 W
            Gate Leakage = 0.0650109 W
            Runtime Dynamic = 0.376503 W

*****************************************************************************************
Core:
      Area = 1776.72 mm^2
      Peak Dynamic = 209254 W
      Subthreshold Leakage = 76.417 W
      Subthreshold Leakage with power gating = 32.6025 W
      Gate Leakage = 5.63287 W
      Runtime Dynamic = 122.393 W

      Instruction Fetch Unit:
        Area = 47.2731 mm^2
        Peak Dynamic = 4050.72 W
        Subthreshold Leakage = 2.37932 W
        Subthreshold Leakage with power gating = 0.95452 W
        Gate Leakage = 0.23961 W
        Runtime Dynamic = 1.36214 W

          Instruction Cache:
            Area = 4.86613 mm^2
            Peak Dynamic = 0.288863 W
            Subthreshold Leakage = 0.486629 W
            Subthreshold Leakage with power gating = 0.22691 W
            Gate Leakage = 0.0421203 W
            Runtime Dynamic = 0.0276873 W

          Branch Target Buffer:
            Area = 0.64954 mm^2
            Peak Dynamic = 0.177867 W
            Subthreshold Leakage = 0.0811682 W
            Subthreshold Leakage with power gating = 0.0435357 W
            Gate Leakage = 0.00272758 W
            Runtime Dynamic = 0.000775479 W

          Branch Predictor:
            Area = 0.138516 mm^2
            Peak Dynamic = 0.0597838 W
            Subthreshold Leakage = 0.0199703 W
            Subthreshold Leakage with power gating = 0.0103282 W
            Gate Leakage = 0.000757657 W
            Runtime Dynamic = 0.000274853 W

              Global Predictor:
                Area = 0.0435221 mm^2
                Peak Dynamic = 0.0168831 W
                Subthreshold Leakage = 0.00759719 W
                Subthreshold Leakage with power gating = 0.0039236 W
                Gate Leakage = 0.000278362 W
                Runtime Dynamic = 7.92912e-05 W

              Local Predictor:
              L1_Local Predictor:
                Area = 0.0257064 mm^2
                Peak Dynamic = 0.0142575 W
                Subthreshold Leakage = 0.00384344 W
                Subthreshold Leakage with power gating = 0.00198631 W
                Gate Leakage = 0.000154548 W
                Runtime Dynamic = 6.86359e-05 W

              L2_Local Predictor:
                Area = 0.0151917 mm^2
                Peak Dynamic = 0.00527447 W
                Subthreshold Leakage = 0.00181347 W
                Subthreshold Leakage with power gating = 0.000957045 W
                Gate Leakage = 8.00196e-05 W
                Runtime Dynamic = 2.63367e-05 W

              Chooser:
                Area = 0.0435221 mm^2
                Peak Dynamic = 0.0168831 W
                Subthreshold Leakage = 0.00759719 W
                Subthreshold Leakage with power gating = 0.0039236 W
                Gate Leakage = 0.000278362 W
                Runtime Dynamic = 7.92912e-05 W

              RAS:
                Area = 0.0105732 mm^2
                Peak Dynamic = 0.0117602 W
                Subthreshold Leakage = 0.000932505 W
                Subthreshold Leakage with power gating = 0.000494733 W
                Gate Leakage = 4.63858e-05 W
                Runtime Dynamic = 4.76344e-05 W

          Instruction Buffer:
            Area = 11.1802 mm^2
            Peak Dynamic = 4028.05 W
            Subthreshold Leakage = 1.03354 W
            Subthreshold Leakage with power gating = 0.389491 W
            Gate Leakage = 0.119458 W
            Runtime Dynamic = 1.32258 W

          Instruction Decoder:
            Area = 29.7278 mm^2
            Peak Dynamic = 21.9846 W
            Subthreshold Leakage = 0.442943 W
            Subthreshold Leakage with power gating = 0.166104 W
            Gate Leakage = 0.0222493 W
            Runtime Dynamic = 0.0108277 W

      Renaming Unit:
        Area = 27.8071 mm^2
        Peak Dynamic = 2556.62 W
        Subthreshold Leakage = 0.87819 W
        Subthreshold Leakage with power gating = 0.437089 W
        Gate Leakage = 0.0906085 W
        Runtime Dynamic = 1.3458 W

          Int Front End RAT:
            Area = 19.3301 mm^2
            Peak Dynamic = 2465.83 W
            Subthreshold Leakage = 0.500294 W
            Subthreshold Leakage with power gating = 0.285168 W
            Gate Leakage = 0.0323898 W
            Runtime Dynamic = 1.21149 W

          FP Front End RAT:
            Area = 0.168486 mm^2
            Peak Dynamic = 78.3725 W
            Subthreshold Leakage = 0.0437281 W
            Subthreshold Leakage with power gating = 0.024925 W
            Gate Leakage = 0.00489731 W
            Runtime Dynamic = 0.126264 W

          Free List:
            Area = 7.5975 mm^2
            Peak Dynamic = 7.41375 W
            Subthreshold Leakage = 0.0190978 W
            Subthreshold Leakage with power gating = 0.00884518 W
            Gate Leakage = 0.00102434 W
            Runtime Dynamic = 0.00804924 W

      Load Store Unit:
        Area = 9.47562 mm^2
        Peak Dynamic = 1.50996 W
        Subthreshold Leakage = 0.886727 W
        Subthreshold Leakage with power gating = 0.394071 W
        Gate Leakage = 0.0841218 W
        Runtime Dynamic = 0.104228 W

          Data Cache:
            Area = 6.84535 mm^2
            Peak Dynamic = 1.39184 W
            Subthreshold Leakage = 0.527675 W
            Subthreshold Leakage with power gating = 0.25085 W
            Gate Leakage = 0.0279261 W
            Runtime Dynamic = 0.0745356 W

          LoadQ:
            Area = 0.0836782 mm^2
            Peak Dynamic = 0.00500564 W
            Subthreshold Leakage = 0.00941961 W
            Subthreshold Leakage with power gating = 0.00536918 W
            Gate Leakage = 0.00059896 W
            Runtime Dynamic = 0.00500558 W

          StoreQ:
            Area = 0.322079 mm^2
            Peak Dynamic = 0.0123431 W
            Subthreshold Leakage = 0.0345621 W
            Subthreshold Leakage with power gating = 0.0197004 W
            Gate Leakage = 0.00329971 W
            Runtime Dynamic = 0.0246858 W

      Memory Management Unit:
        Area = 1.10051 mm^2
        Peak Dynamic = 2.56859 W
        Subthreshold Leakage = 0.372016 W
        Subthreshold Leakage with power gating = 0.150611 W
        Gate Leakage = 0.057119 W
        Runtime Dynamic = 0.00653585 W

          Itlb:
            Area = 0.301552 mm^2
            Peak Dynamic = 0.0126082 W
            Subthreshold Leakage = 0.0413758 W
            Subthreshold Leakage with power gating = 0.0235842 W
            Gate Leakage = 0.00393464 W
            Runtime Dynamic = 0.00214248 W

          Dtlb:
            Area = 0.0879726 mm^2
            Peak Dynamic = 0.00438059 W
            Subthreshold Leakage = 0.0155699 W
            Subthreshold Leakage with power gating = 0.00887485 W
            Gate Leakage = 0.00088729 W
            Runtime Dynamic = 0.0043926 W

      Execution Unit:
        Area = 1686.67 mm^2
        Peak Dynamic = 202643 W
        Subthreshold Leakage = 70.0229 W
        Subthreshold Leakage with power gating = 29.962 W
        Gate Leakage = 5.03755 W
        Runtime Dynamic = 119.574 W

          Register Files:
            Area = 111.819 mm^2
            Peak Dynamic = 0.513401 W
            Subthreshold Leakage = 1.55192 W
            Subthreshold Leakage with power gating = 0.587195 W
            Gate Leakage = 0.101689 W
            Runtime Dynamic = 0.0497108 W

              Integer RF:
                Area = 74.0344 mm^2
                Peak Dynamic = 0.223577 W
                Subthreshold Leakage = 1.06477 W
                Subthreshold Leakage with power gating = 0.401522 W
                Gate Leakage = 0.0700135 W
                Runtime Dynamic = 0.0444368 W

              Floating Point RF:
                Area = 37.7848 mm^2
                Peak Dynamic = 0.289824 W
                Subthreshold Leakage = 0.487147 W
                Subthreshold Leakage with power gating = 0.185673 W
                Gate Leakage = 0.0316755 W
                Runtime Dynamic = 0.00527406 W

          Instruction Scheduler:
            Area = 1561.2 mm^2
            Peak Dynamic = 202642 W
            Subthreshold Leakage = 59.5387 W
            Subthreshold Leakage with power gating = 26.0252 W
            Gate Leakage = 4.31521 W
            Runtime Dynamic = 118.524 W

              Instruction Window:
                Area = 242.241 mm^2
                Peak Dynamic = 491.03 W
                Subthreshold Leakage = 18.7871 W
                Subthreshold Leakage with power gating = 10.7075 W
                Gate Leakage = 1.23925 W
                Runtime Dynamic = 0.312454 W

              FP Instruction Window:
                Area = 0.328073 mm^2
                Peak Dynamic = 2.30959 W
                Subthreshold Leakage = 0.0225127 W
                Subthreshold Leakage with power gating = 0.0116864 W
                Gate Leakage = 0.00181534 W
                Runtime Dynamic = 0.0210361 W

              ROB:
                Area = 1318.63 mm^2
                Peak Dynamic = 202149 W
                Subthreshold Leakage = 40.7291 W
                Subthreshold Leakage with power gating = 15.306 W
                Gate Leakage = 3.07414 W
                Runtime Dynamic = 118.191 W

          Integer ALUs (Count: 96 ):
            Area = 7.53393 mm^2
            Peak Dynamic = 0.0105366 W
            Subthreshold Leakage = 6.43552 W
            Subthreshold Leakage with power gating = 2.41332 W
            Gate Leakage = 0.424466 W
            Runtime Dynamic = 0.112414 W

          Floating Point Units (FPUs) (Count: 2 ):
            Area = 4.6585 mm^2
            Peak Dynamic = 0.00815178 W
            Subthreshold Leakage = 0.994829 W
            Subthreshold Leakage with power gating = 0.373061 W
            Gate Leakage = 0.0656156 W
            Runtime Dynamic = 0.307619 W

          Complex ALUs (Mul/Div) (Count: 1 ):
            Area = 0.235435 mm^2
            Peak Dynamic = 0.00144915 W
            Subthreshold Leakage = 0.20111 W
            Subthreshold Leakage with power gating = 0.0754163 W
            Gate Leakage = 0.0132646 W
            Runtime Dynamic = 0.203827 W

          Results Broadcast Bus:
            Area Overhead = 0.510923 mm^2
            Peak Dynamic = 0.0418739 W
            Subthreshold Leakage = 0.985661 W
            Subthreshold Leakage with power gating = 0.369623 W
            Gate Leakage = 0.0650109 W
            Runtime Dynamic = 0.376438 W

*****************************************************************************************
Core:
      Area = 1776.72 mm^2
      Peak Dynamic = 209254 W
      Subthreshold Leakage = 76.417 W
      Subthreshold Leakage with power gating = 32.6025 W
      Gate Leakage = 5.63287 W
      Runtime Dynamic = 123.05 W

      Instruction Fetch Unit:
        Area = 47.2731 mm^2
        Peak Dynamic = 4050.73 W
        Subthreshold Leakage = 2.37932 W
        Subthreshold Leakage with power gating = 0.95452 W
        Gate Leakage = 0.23961 W
        Runtime Dynamic = 1.36996 W

          Instruction Cache:
            Area = 4.86613 mm^2
            Peak Dynamic = 0.290531 W
            Subthreshold Leakage = 0.486629 W
            Subthreshold Leakage with power gating = 0.22691 W
            Gate Leakage = 0.0421203 W
            Runtime Dynamic = 0.0277976 W

          Branch Target Buffer:
            Area = 0.64954 mm^2
            Peak Dynamic = 0.177867 W
            Subthreshold Leakage = 0.0811682 W
            Subthreshold Leakage with power gating = 0.0435357 W
            Gate Leakage = 0.00272758 W
            Runtime Dynamic = 0.000781484 W

          Branch Predictor:
            Area = 0.138516 mm^2
            Peak Dynamic = 0.0597838 W
            Subthreshold Leakage = 0.0199703 W
            Subthreshold Leakage with power gating = 0.0103282 W
            Gate Leakage = 0.000757657 W
            Runtime Dynamic = 0.000276969 W

              Global Predictor:
                Area = 0.0435221 mm^2
                Peak Dynamic = 0.0168831 W
                Subthreshold Leakage = 0.00759719 W
                Subthreshold Leakage with power gating = 0.0039236 W
                Gate Leakage = 0.000278362 W
                Runtime Dynamic = 7.99316e-05 W

              Local Predictor:
              L1_Local Predictor:
                Area = 0.0257064 mm^2
                Peak Dynamic = 0.0142575 W
                Subthreshold Leakage = 0.00384344 W
                Subthreshold Leakage with power gating = 0.00198631 W
                Gate Leakage = 0.000154548 W
                Runtime Dynamic = 6.91975e-05 W

              L2_Local Predictor:
                Area = 0.0151917 mm^2
                Peak Dynamic = 0.00527447 W
                Subthreshold Leakage = 0.00181347 W
                Subthreshold Leakage with power gating = 0.000957045 W
                Gate Leakage = 8.00196e-05 W
                Runtime Dynamic = 2.65562e-05 W

              Chooser:
                Area = 0.0435221 mm^2
                Peak Dynamic = 0.0168831 W
                Subthreshold Leakage = 0.00759719 W
                Subthreshold Leakage with power gating = 0.0039236 W
                Gate Leakage = 0.000278362 W
                Runtime Dynamic = 7.99316e-05 W

              RAS:
                Area = 0.0105732 mm^2
                Peak Dynamic = 0.0117602 W
                Subthreshold Leakage = 0.000932505 W
                Subthreshold Leakage with power gating = 0.000494733 W
                Gate Leakage = 4.63858e-05 W
                Runtime Dynamic = 4.7908e-05 W

          Instruction Buffer:
            Area = 11.1802 mm^2
            Peak Dynamic = 4028.05 W
            Subthreshold Leakage = 1.03354 W
            Subthreshold Leakage with power gating = 0.389491 W
            Gate Leakage = 0.119458 W
            Runtime Dynamic = 1.33021 W

          Instruction Decoder:
            Area = 29.7278 mm^2
            Peak Dynamic = 21.9846 W
            Subthreshold Leakage = 0.442943 W
            Subthreshold Leakage with power gating = 0.166104 W
            Gate Leakage = 0.0222493 W
            Runtime Dynamic = 0.0108902 W

      Renaming Unit:
        Area = 27.8071 mm^2
        Peak Dynamic = 2556.62 W
        Subthreshold Leakage = 0.87819 W
        Subthreshold Leakage with power gating = 0.437089 W
        Gate Leakage = 0.0906085 W
        Runtime Dynamic = 1.35284 W

          Int Front End RAT:
            Area = 19.3301 mm^2
            Peak Dynamic = 2465.83 W
            Subthreshold Leakage = 0.500294 W
            Subthreshold Leakage with power gating = 0.285168 W
            Gate Leakage = 0.0323898 W
            Runtime Dynamic = 1.21848 W

          FP Front End RAT:
            Area = 0.168486 mm^2
            Peak Dynamic = 78.3725 W
            Subthreshold Leakage = 0.0437281 W
            Subthreshold Leakage with power gating = 0.024925 W
            Gate Leakage = 0.00489731 W
            Runtime Dynamic = 0.126264 W

          Free List:
            Area = 7.5975 mm^2
            Peak Dynamic = 7.41375 W
            Subthreshold Leakage = 0.0190978 W
            Subthreshold Leakage with power gating = 0.00884518 W
            Gate Leakage = 0.00102434 W
            Runtime Dynamic = 0.0080914 W

      Load Store Unit:
        Area = 9.47562 mm^2
        Peak Dynamic = 1.51092 W
        Subthreshold Leakage = 0.886727 W
        Subthreshold Leakage with power gating = 0.394071 W
        Gate Leakage = 0.0841218 W
        Runtime Dynamic = 0.104611 W

          Data Cache:
            Area = 6.84535 mm^2
            Peak Dynamic = 1.39239 W
            Subthreshold Leakage = 0.527675 W
            Subthreshold Leakage with power gating = 0.25085 W
            Gate Leakage = 0.0279261 W
            Runtime Dynamic = 0.074813 W

          LoadQ:
            Area = 0.0836782 mm^2
            Peak Dynamic = 0.00502329 W
            Subthreshold Leakage = 0.00941961 W
            Subthreshold Leakage with power gating = 0.00536918 W
            Gate Leakage = 0.00059896 W
            Runtime Dynamic = 0.00502335 W

          StoreQ:
            Area = 0.322079 mm^2
            Peak Dynamic = 0.0123866 W
            Subthreshold Leakage = 0.0345621 W
            Subthreshold Leakage with power gating = 0.0197004 W
            Gate Leakage = 0.00329971 W
            Runtime Dynamic = 0.0247735 W

      Memory Management Unit:
        Area = 1.10051 mm^2
        Peak Dynamic = 2.56885 W
        Subthreshold Leakage = 0.372016 W
        Subthreshold Leakage with power gating = 0.150611 W
        Gate Leakage = 0.057119 W
        Runtime Dynamic = 0.0065623 W

          Itlb:
            Area = 0.301552 mm^2
            Peak Dynamic = 0.012681 W
            Subthreshold Leakage = 0.0413758 W
            Subthreshold Leakage with power gating = 0.0235842 W
            Gate Leakage = 0.00393464 W
            Runtime Dynamic = 0.00215254 W

          Dtlb:
            Area = 0.0879726 mm^2
            Peak Dynamic = 0.00439603 W
            Subthreshold Leakage = 0.0155699 W
            Subthreshold Leakage with power gating = 0.00887485 W
            Gate Leakage = 0.00088729 W
            Runtime Dynamic = 0.00440899 W

      Execution Unit:
        Area = 1686.67 mm^2
        Peak Dynamic = 202643 W
        Subthreshold Leakage = 70.0229 W
        Subthreshold Leakage with power gating = 29.962 W
        Gate Leakage = 5.03755 W
        Runtime Dynamic = 120.216 W

          Register Files:
            Area = 111.819 mm^2
            Peak Dynamic = 0.513666 W
            Subthreshold Leakage = 1.55192 W
            Subthreshold Leakage with power gating = 0.587195 W
            Gate Leakage = 0.101689 W
            Runtime Dynamic = 0.0499978 W

              Integer RF:
                Area = 74.0344 mm^2
                Peak Dynamic = 0.223842 W
                Subthreshold Leakage = 1.06477 W
                Subthreshold Leakage with power gating = 0.401522 W
                Gate Leakage = 0.0700135 W
                Runtime Dynamic = 0.0446934 W

              Floating Point RF:
                Area = 37.7848 mm^2
                Peak Dynamic = 0.289824 W
                Subthreshold Leakage = 0.487147 W
                Subthreshold Leakage with power gating = 0.185673 W
                Gate Leakage = 0.0316755 W
                Runtime Dynamic = 0.00530446 W

          Instruction Scheduler:
            Area = 1561.2 mm^2
            Peak Dynamic = 202642 W
            Subthreshold Leakage = 59.5387 W
            Subthreshold Leakage with power gating = 26.0252 W
            Gate Leakage = 4.31521 W
            Runtime Dynamic = 119.164 W

              Instruction Window:
                Area = 242.241 mm^2
                Peak Dynamic = 491.03 W
                Subthreshold Leakage = 18.7871 W
                Subthreshold Leakage with power gating = 10.7075 W
                Gate Leakage = 1.23925 W
                Runtime Dynamic = 0.314257 W

              FP Instruction Window:
                Area = 0.328073 mm^2
                Peak Dynamic = 2.30959 W
                Subthreshold Leakage = 0.0225127 W
                Subthreshold Leakage with power gating = 0.0116864 W
                Gate Leakage = 0.00181534 W
                Runtime Dynamic = 0.0211575 W

              ROB:
                Area = 1318.63 mm^2
                Peak Dynamic = 202149 W
                Subthreshold Leakage = 40.7291 W
                Subthreshold Leakage with power gating = 15.306 W
                Gate Leakage = 3.07414 W
                Runtime Dynamic = 118.829 W

          Integer ALUs (Count: 96 ):
            Area = 7.53393 mm^2
            Peak Dynamic = 0.0106081 W
            Subthreshold Leakage = 6.43552 W
            Subthreshold Leakage with power gating = 2.41332 W
            Gate Leakage = 0.424466 W
            Runtime Dynamic = 0.112476 W

          Floating Point Units (FPUs) (Count: 2 ):
            Area = 4.6585 mm^2
            Peak Dynamic = 0.00815178 W
            Subthreshold Leakage = 0.994829 W
            Subthreshold Leakage with power gating = 0.373061 W
            Gate Leakage = 0.0656156 W
            Runtime Dynamic = 0.307619 W

          Complex ALUs (Mul/Div) (Count: 1 ):
            Area = 0.235435 mm^2
            Peak Dynamic = 0.00144915 W
            Subthreshold Leakage = 0.20111 W
            Subthreshold Leakage with power gating = 0.0754163 W
            Gate Leakage = 0.0132646 W
            Runtime Dynamic = 0.203827 W

          Results Broadcast Bus:
            Area Overhead = 0.510923 mm^2
            Peak Dynamic = 0.0419194 W
            Subthreshold Leakage = 0.985661 W
            Subthreshold Leakage with power gating = 0.369623 W
            Gate Leakage = 0.0650109 W
            Runtime Dynamic = 0.378356 W

*****************************************************************************************
Core:
      Area = 1776.72 mm^2
      Peak Dynamic = 209254 W
      Subthreshold Leakage = 76.417 W
      Subthreshold Leakage with power gating = 32.6025 W
      Gate Leakage = 5.63287 W
      Runtime Dynamic = 123.44 W

      Instruction Fetch Unit:
        Area = 47.2731 mm^2
        Peak Dynamic = 4050.73 W
        Subthreshold Leakage = 2.37932 W
        Subthreshold Leakage with power gating = 0.95452 W
        Gate Leakage = 0.23961 W
        Runtime Dynamic = 1.37399 W

          Instruction Cache:
            Area = 4.86613 mm^2
            Peak Dynamic = 0.291364 W
            Subthreshold Leakage = 0.486629 W
            Subthreshold Leakage with power gating = 0.22691 W
            Gate Leakage = 0.0421203 W
            Runtime Dynamic = 0.0279555 W

          Branch Target Buffer:
            Area = 0.64954 mm^2
            Peak Dynamic = 0.177867 W
            Subthreshold Leakage = 0.0811682 W
            Subthreshold Leakage with power gating = 0.0435357 W
            Gate Leakage = 0.00272758 W
            Runtime Dynamic = 0.000784704 W

          Branch Predictor:
            Area = 0.138516 mm^2
            Peak Dynamic = 0.0597838 W
            Subthreshold Leakage = 0.0199703 W
            Subthreshold Leakage with power gating = 0.0103282 W
            Gate Leakage = 0.000757657 W
            Runtime Dynamic = 0.000278098 W

              Global Predictor:
                Area = 0.0435221 mm^2
                Peak Dynamic = 0.0168831 W
                Subthreshold Leakage = 0.00759719 W
                Subthreshold Leakage with power gating = 0.0039236 W
                Gate Leakage = 0.000278362 W
                Runtime Dynamic = 8.02758e-05 W

              Local Predictor:
              L1_Local Predictor:
                Area = 0.0257064 mm^2
                Peak Dynamic = 0.0142575 W
                Subthreshold Leakage = 0.00384344 W
                Subthreshold Leakage with power gating = 0.00198631 W
                Gate Leakage = 0.000154548 W
                Runtime Dynamic = 6.94995e-05 W

              L2_Local Predictor:
                Area = 0.0151917 mm^2
                Peak Dynamic = 0.00527447 W
                Subthreshold Leakage = 0.00181347 W
                Subthreshold Leakage with power gating = 0.000957045 W
                Gate Leakage = 8.00196e-05 W
                Runtime Dynamic = 2.66744e-05 W

              Chooser:
                Area = 0.0435221 mm^2
                Peak Dynamic = 0.0168831 W
                Subthreshold Leakage = 0.00759719 W
                Subthreshold Leakage with power gating = 0.0039236 W
                Gate Leakage = 0.000278362 W
                Runtime Dynamic = 8.02758e-05 W

              RAS:
                Area = 0.0105732 mm^2
                Peak Dynamic = 0.0117602 W
                Subthreshold Leakage = 0.000932505 W
                Subthreshold Leakage with power gating = 0.000494733 W
                Gate Leakage = 4.63858e-05 W
                Runtime Dynamic = 4.80472e-05 W

          Instruction Buffer:
            Area = 11.1802 mm^2
            Peak Dynamic = 4028.05 W
            Subthreshold Leakage = 1.03354 W
            Subthreshold Leakage with power gating = 0.389491 W
            Gate Leakage = 0.119458 W
            Runtime Dynamic = 1.33405 W

          Instruction Decoder:
            Area = 29.7278 mm^2
            Peak Dynamic = 21.9846 W
            Subthreshold Leakage = 0.442943 W
            Subthreshold Leakage with power gating = 0.166104 W
            Gate Leakage = 0.0222493 W
            Runtime Dynamic = 0.0109216 W

      Renaming Unit:
        Area = 27.8071 mm^2
        Peak Dynamic = 2556.62 W
        Subthreshold Leakage = 0.87819 W
        Subthreshold Leakage with power gating = 0.437089 W
        Gate Leakage = 0.0906085 W
        Runtime Dynamic = 1.35638 W

          Int Front End RAT:
            Area = 19.3301 mm^2
            Peak Dynamic = 2465.83 W
            Subthreshold Leakage = 0.500294 W
            Subthreshold Leakage with power gating = 0.285168 W
            Gate Leakage = 0.0323898 W
            Runtime Dynamic = 1.222 W

          FP Front End RAT:
            Area = 0.168486 mm^2
            Peak Dynamic = 78.3725 W
            Subthreshold Leakage = 0.0437281 W
            Subthreshold Leakage with power gating = 0.024925 W
            Gate Leakage = 0.00489731 W
            Runtime Dynamic = 0.126264 W

          Free List:
            Area = 7.5975 mm^2
            Peak Dynamic = 7.41375 W
            Subthreshold Leakage = 0.0190978 W
            Subthreshold Leakage with power gating = 0.00884518 W
            Gate Leakage = 0.00102434 W
            Runtime Dynamic = 0.00811258 W

      Load Store Unit:
        Area = 9.47562 mm^2
        Peak Dynamic = 1.51149 W
        Subthreshold Leakage = 0.886727 W
        Subthreshold Leakage with power gating = 0.394071 W
        Gate Leakage = 0.0841218 W
        Runtime Dynamic = 0.104904 W

          Data Cache:
            Area = 6.84535 mm^2
            Peak Dynamic = 1.39271 W
            Subthreshold Leakage = 0.527675 W
            Subthreshold Leakage with power gating = 0.25085 W
            Gate Leakage = 0.0279261 W
            Runtime Dynamic = 0.0750449 W

          LoadQ:
            Area = 0.0836782 mm^2
            Peak Dynamic = 0.00503372 W
            Subthreshold Leakage = 0.00941961 W
            Subthreshold Leakage with power gating = 0.00536918 W
            Gate Leakage = 0.00059896 W
            Runtime Dynamic = 0.00503372 W

          StoreQ:
            Area = 0.322079 mm^2
            Peak Dynamic = 0.0124123 W
            Subthreshold Leakage = 0.0345621 W
            Subthreshold Leakage with power gating = 0.0197004 W
            Gate Leakage = 0.00329971 W
            Runtime Dynamic = 0.0248246 W

      Memory Management Unit:
        Area = 1.10051 mm^2
        Peak Dynamic = 2.569 W
        Subthreshold Leakage = 0.372016 W
        Subthreshold Leakage with power gating = 0.150611 W
        Gate Leakage = 0.057119 W
        Runtime Dynamic = 0.00658373 W

          Itlb:
            Area = 0.301552 mm^2
            Peak Dynamic = 0.0127174 W
            Subthreshold Leakage = 0.0413758 W
            Subthreshold Leakage with power gating = 0.0235842 W
            Gate Leakage = 0.00393464 W
            Runtime Dynamic = 0.00216326 W

          Dtlb:
            Area = 0.0879726 mm^2
            Peak Dynamic = 0.00440517 W
            Subthreshold Leakage = 0.0155699 W
            Subthreshold Leakage with power gating = 0.00887485 W
            Gate Leakage = 0.00088729 W
            Runtime Dynamic = 0.0044197 W

      Execution Unit:
        Area = 1686.67 mm^2
        Peak Dynamic = 202643 W
        Subthreshold Leakage = 70.0229 W
        Subthreshold Leakage with power gating = 29.962 W
        Gate Leakage = 5.03755 W
        Runtime Dynamic = 120.598 W

          Register Files:
            Area = 111.819 mm^2
            Peak Dynamic = 0.513798 W
            Subthreshold Leakage = 1.55192 W
            Subthreshold Leakage with power gating = 0.587195 W
            Gate Leakage = 0.101689 W
            Runtime Dynamic = 0.050142 W

              Integer RF:
                Area = 74.0344 mm^2
                Peak Dynamic = 0.223974 W
                Subthreshold Leakage = 1.06477 W
                Subthreshold Leakage with power gating = 0.401522 W
                Gate Leakage = 0.0700135 W
                Runtime Dynamic = 0.0448223 W

              Floating Point RF:
                Area = 37.7848 mm^2
                Peak Dynamic = 0.289824 W
                Subthreshold Leakage = 0.487147 W
                Subthreshold Leakage with power gating = 0.185673 W
                Gate Leakage = 0.0316755 W
                Runtime Dynamic = 0.00531972 W

          Instruction Scheduler:
            Area = 1561.2 mm^2
            Peak Dynamic = 202642 W
            Subthreshold Leakage = 59.5387 W
            Subthreshold Leakage with power gating = 26.0252 W
            Gate Leakage = 4.31521 W
            Runtime Dynamic = 119.544 W

              Instruction Window:
                Area = 242.241 mm^2
                Peak Dynamic = 491.03 W
                Subthreshold Leakage = 18.7871 W
                Subthreshold Leakage with power gating = 10.7075 W
                Gate Leakage = 1.23925 W
                Runtime Dynamic = 0.315164 W

              FP Instruction Window:
                Area = 0.328073 mm^2
                Peak Dynamic = 2.30959 W
                Subthreshold Leakage = 0.0225127 W
                Subthreshold Leakage with power gating = 0.0116864 W
                Gate Leakage = 0.00181534 W
                Runtime Dynamic = 0.0212186 W

              ROB:
                Area = 1318.63 mm^2
                Peak Dynamic = 202149 W
                Subthreshold Leakage = 40.7291 W
                Subthreshold Leakage with power gating = 15.306 W
                Gate Leakage = 3.07414 W
                Runtime Dynamic = 119.208 W

          Integer ALUs (Count: 96 ):
            Area = 7.53393 mm^2
            Peak Dynamic = 0.0106438 W
            Subthreshold Leakage = 6.43552 W
            Subthreshold Leakage with power gating = 2.41332 W
            Gate Leakage = 0.424466 W
            Runtime Dynamic = 0.112514 W

          Floating Point Units (FPUs) (Count: 2 ):
            Area = 4.6585 mm^2
            Peak Dynamic = 0.00815178 W
            Subthreshold Leakage = 0.994829 W
            Subthreshold Leakage with power gating = 0.373061 W
            Gate Leakage = 0.0656156 W
            Runtime Dynamic = 0.307619 W

          Complex ALUs (Mul/Div) (Count: 1 ):
            Area = 0.235435 mm^2
            Peak Dynamic = 0.00144915 W
            Subthreshold Leakage = 0.20111 W
            Subthreshold Leakage with power gating = 0.0754163 W
            Gate Leakage = 0.0132646 W
            Runtime Dynamic = 0.203827 W

          Results Broadcast Bus:
            Area Overhead = 0.510923 mm^2
            Peak Dynamic = 0.0419422 W
            Subthreshold Leakage = 0.985661 W
            Subthreshold Leakage with power gating = 0.369623 W
            Gate Leakage = 0.0650109 W
            Runtime Dynamic = 0.379517 W

*****************************************************************************************
Core:
      Area = 1776.72 mm^2
      Peak Dynamic = 209254 W
      Subthreshold Leakage = 76.417 W
      Subthreshold Leakage with power gating = 32.6025 W
      Gate Leakage = 5.63287 W
      Runtime Dynamic = 122.679 W

      Instruction Fetch Unit:
        Area = 47.2731 mm^2
        Peak Dynamic = 4050.72 W
        Subthreshold Leakage = 2.37932 W
        Subthreshold Leakage with power gating = 0.95452 W
        Gate Leakage = 0.23961 W
        Runtime Dynamic = 1.36544 W

          Instruction Cache:
            Area = 4.86613 mm^2
            Peak Dynamic = 0.289541 W
            Subthreshold Leakage = 0.486629 W
            Subthreshold Leakage with power gating = 0.22691 W
            Gate Leakage = 0.0421203 W
            Runtime Dynamic = 0.027823 W

          Branch Target Buffer:
            Area = 0.64954 mm^2
            Peak Dynamic = 0.177867 W
            Subthreshold Leakage = 0.0811682 W
            Subthreshold Leakage with power gating = 0.0435357 W
            Gate Leakage = 0.00272758 W
            Runtime Dynamic = 0.000777963 W

          Branch Predictor:
            Area = 0.138516 mm^2
            Peak Dynamic = 0.0597838 W
            Subthreshold Leakage = 0.0199703 W
            Subthreshold Leakage with power gating = 0.0103282 W
            Gate Leakage = 0.000757657 W
            Runtime Dynamic = 0.000275542 W

              Global Predictor:
                Area = 0.0435221 mm^2
                Peak Dynamic = 0.0168831 W
                Subthreshold Leakage = 0.00759719 W
                Subthreshold Leakage with power gating = 0.0039236 W
                Gate Leakage = 0.000278362 W
                Runtime Dynamic = 7.94974e-05 W

              Local Predictor:
              L1_Local Predictor:
                Area = 0.0257064 mm^2
                Peak Dynamic = 0.0142575 W
                Subthreshold Leakage = 0.00384344 W
                Subthreshold Leakage with power gating = 0.00198631 W
                Gate Leakage = 0.000154548 W
                Runtime Dynamic = 6.88014e-05 W

              L2_Local Predictor:
                Area = 0.0151917 mm^2
                Peak Dynamic = 0.00527447 W
                Subthreshold Leakage = 0.00181347 W
                Subthreshold Leakage with power gating = 0.000957045 W
                Gate Leakage = 8.00196e-05 W
                Runtime Dynamic = 2.63931e-05 W

              Chooser:
                Area = 0.0435221 mm^2
                Peak Dynamic = 0.0168831 W
                Subthreshold Leakage = 0.00759719 W
                Subthreshold Leakage with power gating = 0.0039236 W
                Gate Leakage = 0.000278362 W
                Runtime Dynamic = 7.94974e-05 W

              RAS:
                Area = 0.0105732 mm^2
                Peak Dynamic = 0.0117602 W
                Subthreshold Leakage = 0.000932505 W
                Subthreshold Leakage with power gating = 0.000494733 W
                Gate Leakage = 4.63858e-05 W
                Runtime Dynamic = 4.77457e-05 W

          Instruction Buffer:
            Area = 11.1802 mm^2
            Peak Dynamic = 4028.05 W
            Subthreshold Leakage = 1.03354 W
            Subthreshold Leakage with power gating = 0.389491 W
            Gate Leakage = 0.119458 W
            Runtime Dynamic = 1.32571 W

          Instruction Decoder:
            Area = 29.7278 mm^2
            Peak Dynamic = 21.9846 W
            Subthreshold Leakage = 0.442943 W
            Subthreshold Leakage with power gating = 0.166104 W
            Gate Leakage = 0.0222493 W
            Runtime Dynamic = 0.0108533 W

      Renaming Unit:
        Area = 27.8071 mm^2
        Peak Dynamic = 2556.62 W
        Subthreshold Leakage = 0.87819 W
        Subthreshold Leakage with power gating = 0.437089 W
        Gate Leakage = 0.0906085 W
        Runtime Dynamic = 1.34869 W

          Int Front End RAT:
            Area = 19.3301 mm^2
            Peak Dynamic = 2465.83 W
            Subthreshold Leakage = 0.500294 W
            Subthreshold Leakage with power gating = 0.285168 W
            Gate Leakage = 0.0323898 W
            Runtime Dynamic = 1.21435 W

          FP Front End RAT:
            Area = 0.168486 mm^2
            Peak Dynamic = 78.3725 W
            Subthreshold Leakage = 0.0437281 W
            Subthreshold Leakage with power gating = 0.024925 W
            Gate Leakage = 0.00489731 W
            Runtime Dynamic = 0.126264 W

          Free List:
            Area = 7.5975 mm^2
            Peak Dynamic = 7.41375 W
            Subthreshold Leakage = 0.0190978 W
            Subthreshold Leakage with power gating = 0.00884518 W
            Gate Leakage = 0.00102434 W
            Runtime Dynamic = 0.00806651 W

      Load Store Unit:
        Area = 9.47562 mm^2
        Peak Dynamic = 1.51043 W
        Subthreshold Leakage = 0.886727 W
        Subthreshold Leakage with power gating = 0.394071 W
        Gate Leakage = 0.0841218 W
        Runtime Dynamic = 0.104407 W

          Data Cache:
            Area = 6.84535 mm^2
            Peak Dynamic = 1.39211 W
            Subthreshold Leakage = 0.527675 W
            Subthreshold Leakage with power gating = 0.25085 W
            Gate Leakage = 0.0279261 W
            Runtime Dynamic = 0.0746632 W

          LoadQ:
            Area = 0.0836782 mm^2
            Peak Dynamic = 0.00501434 W
            Subthreshold Leakage = 0.00941961 W
            Subthreshold Leakage with power gating = 0.00536918 W
            Gate Leakage = 0.00059896 W
            Runtime Dynamic = 0.00501428 W

          StoreQ:
            Area = 0.322079 mm^2
            Peak Dynamic = 0.0123645 W
            Subthreshold Leakage = 0.0345621 W
            Subthreshold Leakage with power gating = 0.0197004 W
            Gate Leakage = 0.00329971 W
            Runtime Dynamic = 0.0247287 W

      Memory Management Unit:
        Area = 1.10051 mm^2
        Peak Dynamic = 2.56871 W
        Subthreshold Leakage = 0.372016 W
        Subthreshold Leakage with power gating = 0.150611 W
        Gate Leakage = 0.057119 W
        Runtime Dynamic = 0.00655389 W

          Itlb:
            Area = 0.301552 mm^2
            Peak Dynamic = 0.0126378 W
            Subthreshold Leakage = 0.0413758 W
            Subthreshold Leakage with power gating = 0.0235842 W
            Gate Leakage = 0.00393464 W
            Runtime Dynamic = 0.00215301 W

          Dtlb:
            Area = 0.0879726 mm^2
            Peak Dynamic = 0.0043882 W
            Subthreshold Leakage = 0.0155699 W
            Subthreshold Leakage with power gating = 0.00887485 W
            Gate Leakage = 0.00088729 W
            Runtime Dynamic = 0.00440011 W

      Execution Unit:
        Area = 1686.67 mm^2
        Peak Dynamic = 202643 W
        Subthreshold Leakage = 70.0229 W
        Subthreshold Leakage with power gating = 29.962 W
        Gate Leakage = 5.03755 W
        Runtime Dynamic = 119.854 W

          Register Files:
            Area = 111.819 mm^2
            Peak Dynamic = 0.513534 W
            Subthreshold Leakage = 1.55192 W
            Subthreshold Leakage with power gating = 0.587195 W
            Gate Leakage = 0.101689 W
            Runtime Dynamic = 0.0498284 W

              Integer RF:
                Area = 74.0344 mm^2
                Peak Dynamic = 0.22371 W
                Subthreshold Leakage = 1.06477 W
                Subthreshold Leakage with power gating = 0.401522 W
                Gate Leakage = 0.0700135 W
                Runtime Dynamic = 0.044542 W

              Floating Point RF:
                Area = 37.7848 mm^2
                Peak Dynamic = 0.289824 W
                Subthreshold Leakage = 0.487147 W
                Subthreshold Leakage with power gating = 0.185673 W
                Gate Leakage = 0.0316755 W
                Runtime Dynamic = 0.00528644 W

          Instruction Scheduler:
            Area = 1561.2 mm^2
            Peak Dynamic = 202642 W
            Subthreshold Leakage = 59.5387 W
            Subthreshold Leakage with power gating = 26.0252 W
            Gate Leakage = 4.31521 W
            Runtime Dynamic = 118.803 W

              Instruction Window:
                Area = 242.241 mm^2
                Peak Dynamic = 491.03 W
                Subthreshold Leakage = 18.7871 W
                Subthreshold Leakage with power gating = 10.7075 W
                Gate Leakage = 1.23925 W
                Runtime Dynamic = 0.313193 W

              FP Instruction Window:
                Area = 0.328073 mm^2
                Peak Dynamic = 2.30959 W
                Subthreshold Leakage = 0.0225127 W
                Subthreshold Leakage with power gating = 0.0116864 W
                Gate Leakage = 0.00181534 W
                Runtime Dynamic = 0.0210858 W

              ROB:
                Area = 1318.63 mm^2
                Peak Dynamic = 202149 W
                Subthreshold Leakage = 40.7291 W
                Subthreshold Leakage with power gating = 15.306 W
                Gate Leakage = 3.07414 W
                Runtime Dynamic = 118.469 W

          Integer ALUs (Count: 96 ):
            Area = 7.53393 mm^2
            Peak Dynamic = 0.0105724 W
            Subthreshold Leakage = 6.43552 W
            Subthreshold Leakage with power gating = 2.41332 W
            Gate Leakage = 0.424466 W
            Runtime Dynamic = 0.112441 W

          Floating Point Units (FPUs) (Count: 2 ):
            Area = 4.6585 mm^2
            Peak Dynamic = 0.00815178 W
            Subthreshold Leakage = 0.994829 W
            Subthreshold Leakage with power gating = 0.373061 W
            Gate Leakage = 0.0656156 W
            Runtime Dynamic = 0.307619 W

          Complex ALUs (Mul/Div) (Count: 1 ):
            Area = 0.235435 mm^2
            Peak Dynamic = 0.00144915 W
            Subthreshold Leakage = 0.20111 W
            Subthreshold Leakage with power gating = 0.0754163 W
            Gate Leakage = 0.0132646 W
            Runtime Dynamic = 0.203827 W

          Results Broadcast Bus:
            Area Overhead = 0.510923 mm^2
            Peak Dynamic = 0.0418967 W
            Subthreshold Leakage = 0.985661 W
            Subthreshold Leakage with power gating = 0.369623 W
            Gate Leakage = 0.0650109 W
            Runtime Dynamic = 0.377283 W

*****************************************************************************************
L2
      Area = 22.2273 mm^2
      Peak Dynamic = 0.00696031 W
      Subthreshold Leakage = 2.01996 W
      Subthreshold Leakage with power gating = 0.908099 W
      Gate Leakage = 0.0518439 W
      Runtime Dynamic = 0.00269988 W

*****************************************************************************************
L2
      Area = 22.2273 mm^2
      Peak Dynamic = 0.00636345 W
      Subthreshold Leakage = 2.01996 W
      Subthreshold Leakage with power gating = 0.908099 W
      Gate Leakage = 0.0518439 W
      Runtime Dynamic = 0.00235425 W

*****************************************************************************************
L3
      Area = 61.9075 mm^2
      Peak Dynamic = 0.00922473 W
      Subthreshold Leakage = 6.80085 W
      Subthreshold Leakage with power gating = 3.32364 W
      Gate Leakage = 0.0484137 W
      Runtime Dynamic = 0.00572679 W

*****************************************************************************************
BUSES
      Area = 22.5992 mm^2
      Peak Dynamic = 0 W
      Subthreshold Leakage = 0.632215 W
      Subthreshold Leakage with power gating = 0.23708 W
      Gate Leakage = 0.0606272 W
      Runtime Dynamic = 0 W

      Bus: 
        Area = 22.5992 mm^2
        Peak Dynamic = 0 W
        Subthreshold Leakage = 0.632215 W
        Subthreshold Leakage with power gating = 0.23708 W
        Gate Leakage = 0.0606272 W
        Runtime Dynamic = 0 W

*****************************************************************************************
